         594
    2000 594   0    -2142.04893 76.008
 Au         -2.97666        -9.14896         3.02191   1
 Au         -0.16902        -9.02103         2.98321   1
 Au          2.58796        -8.90344         3.07044   1
 Au         -6.06084        -6.39930         2.71557   1
 Au         -2.96452        -6.45331         2.67882   1
 Au         -0.20215        -6.21630         2.70206   1
 Au          2.68971        -6.23390         2.69405   1
 Au          5.60746        -6.18964         3.01213   1
 Au         -8.66190        -3.58812         1.96198   1
 Au         -6.00705        -3.52225         2.30729   1
 Au         -3.17860        -3.46199         2.28413   1
 Au         -0.27533        -3.32275         2.36472   1
 Au          2.49538        -3.33128         2.50411   1
 Au          5.47962        -3.33254         2.74901   1
 Au          8.18480        -3.31421         2.56078   1
 Au         -8.66646        -0.78615         1.66617   1
 Au         -5.98127        -0.71095         1.78692   1
 Au         -3.12945        -0.59824         1.89624   1
 Au         -0.23153        -0.51791         2.16440   1
 Au          2.73226        -0.41940         2.29980   1
 Au          5.52438        -0.59245         2.34602   1
 Au          8.21900        -0.53288         2.58623   1
 Au         -8.63304         1.94593         1.25284   1
 Au         -5.95763         2.10833         1.40194   1
 Au         -3.04212         2.12396         1.71753   1
 Au         -0.29283         2.22512         1.81711   1
 Au          2.56672         2.29712         1.80302   1
 Au          5.32370         2.29111         2.14771   1
 Au          8.13507         2.10277         2.16646   1
 Au         -6.05444         4.85629         1.05711   1
 Au         -3.22190         4.96155         1.23492   1
 Au         -0.22387         5.18806         1.40075   1
 Au          2.58498         5.16349         1.55071   1
 Au          5.48778         5.21239         1.61752   1
 Au         -3.19309         7.67708         0.75139   1
 Au         -0.43292         7.82602         1.05611   1
 Au          2.32203         7.80721         1.30574   1
 Au         -4.44432        -7.55854         4.72466   1
 Au         -1.72234        -7.53248         4.86268   1
 Au          1.17399        -7.40989         4.84721   1
 Au          3.84649        -7.48684         5.02791   1
 Au         -7.48731        -4.58467         4.47929   1
 Au         -4.62631        -4.73211         4.44869   1
 Au         -1.75571        -4.67269         4.58322   1
 Au          1.12896        -4.56223         4.65791   1
 Au          4.04275        -4.61695         4.73759   1
 Au          6.94678        -4.56566         4.77916   1
 Au         -7.52138        -1.80839         3.95161   1
 Au         -4.62194        -1.87500         4.16569   1
 Au         -1.78321        -1.75116         4.25426   1
 Au          1.03500        -1.71603         4.32948   1
 Au          3.99139        -1.73220         4.49515   1
 Au          6.88560        -1.78624         4.54924   1
 Au         -7.63786         0.90934         3.58302   1
 Au         -4.82254         0.86107         3.80377   1
 Au         -1.79656         1.08992         3.98294   1
 Au          1.11791         1.17933         4.06968   1
 Au          3.96869         1.25304         4.23039   1
 Au          6.93395         1.17018         4.27337   1
 Au         -7.47976         3.62592         3.10188   1
 Au         -4.78522         3.87082         3.27883   1
 Au         -1.78459         4.03481         3.57205   1
 Au          1.07458         4.04516         3.65407   1
 Au          3.98305         4.09203         3.68396   1
 Au          6.80340         3.94174         3.92013   1
 Au         -4.80525         6.67633         2.68588   1
 Au         -1.94074         6.72241         3.13011   1
 Au          0.80877         6.92933         3.46717   1
 Au          3.74817         6.73462         3.53257   1
 Au         -5.98412        -5.69537         6.44548   1
 Au         -3.26063        -5.94395         6.68754   1
 Au         -0.35508        -5.67988         6.75588   1
 Au          2.51233        -5.90929         6.77477   1
 Au          5.20278        -5.77607         6.80133   1
 Au         -6.13569        -2.88735         6.20739   1
 Au         -3.29461        -2.96210         6.30554   1
 Au         -0.38365        -2.93876         6.49192   1
 Au          2.57692        -2.91830         6.49645   1
 Au          5.50546        -2.93243         6.53422   1
 Au         -6.27255        -0.20471         5.98832   1
 Au         -3.49093        -0.06502         6.11811   1
 Au         -0.36376        -0.06780         6.06986   1
 Au          2.55565        -0.00989         6.30084   1
 Au          5.47147         0.03409         6.19338   1
 Au         -6.24090         2.47213         5.43366   1
 Au         -3.45185         2.76098         5.57634   1
 Au         -0.46593         2.75540         5.74304   1
 Au          2.41147         2.91766         5.87531   1
 Au          5.26701         2.80700         5.93883   1
 Au         -6.15698         5.36446         4.93644   1
 Au         -3.40547         5.56250         5.32281   1
 Au         -0.61583         5.62998         5.44903   1
 Au          2.26312         5.66236         5.62778   1
 Au          5.01208         5.62849         5.68573   1
 Au         -4.74010        -3.95231         8.37425   1
 Au         -1.98903        -4.11660         8.39928   1
 Au          1.12769        -4.11829         8.58411   1
 Au          3.91613        -4.18494         8.49116   1
 Au         -4.89509        -1.17915         8.23757   1
 Au         -1.86819        -1.19379         8.21203   1
 Au          1.10950        -1.32449         8.47322   1
 Au          3.95682        -1.23314         8.31297   1
 Au         -4.93168         1.53535         7.88898   1
 Au         -2.04968         1.62449         7.80385   1
 Au          0.91478         1.49678         8.03372   1
 Au          3.90857         1.79266         8.03971   1
 Au         -4.93631         4.32104         7.25829   1
 Au         -2.18011         4.49852         7.53453   1
 Au          0.82046         4.40738         7.71480   1
 Au          3.60503         4.53499         7.63753   1
 Au         -3.25755        -2.30554        10.26188   1
 Au         -0.60159        -2.74449        10.32136   1
 Au          2.85936        -2.69667        10.25404   1
 Au         -3.37488         0.34879         9.97854   1
 Au         -0.61138         0.59050        10.06493   1
 Au          2.63921         0.53420        10.05219   1
 Au         -3.49119         3.18680         9.47879   1
 Au         -0.76686         3.20988         9.73522   1
 Au          2.19019         3.17824         9.92090   1
 Au         -4.33788        -7.99328         0.87487   1
 Au         -1.52181        -7.95242         0.83366   1
 Au          1.28583        -7.89750         0.89732   1
 Au          4.11105        -7.82883         0.96402   1
 Au         -7.15645        -5.20105         0.32315   1
 Au         -4.47567        -5.26565         0.54736   1
 Au         -1.58525        -5.21215         0.48645   1
 Au          1.29661        -5.00563         0.52330   1
 Au          4.25573        -5.05742         0.80451   1
 Au          6.86326        -5.03416         0.94298   1
 Au         -7.36280        -2.36721        -0.10435   1
 Au         -4.52115        -2.44386        -0.01892   1
 Au         -1.70292        -2.40986         0.13935   1
 Au          1.30038        -2.15127         0.39782   1
 Au          4.09926        -2.18202         0.52036   1
 Au          7.05810        -2.14713         0.39838   1
 Au         -7.26475         0.48597        -0.54884   1
 Au         -4.46962         0.41931        -0.36334   1
 Au         -1.62477         0.47209        -0.15027   1
 Au          1.22445         0.64984        -0.11796   1
 Au          4.12234         0.65863         0.17882   1
 Au          6.96186         0.71590         0.30758   1
 Au         -7.21567         3.15208        -0.91428   1
 Au         -4.47821         3.22384        -0.81667   1
 Au         -1.67349         3.40289        -0.52629   1
 Au          1.18512         3.57371        -0.46547   1
 Au          3.98263         3.43532        -0.24621   1
 Au          6.82684         3.44052         0.04910   1
 Au         -4.42114         6.04016        -1.14410   1
 Au         -1.59789         6.19099        -0.99096   1
 Au          1.34025         6.34511        -0.70856   1
 Au          4.09130         6.14159        -0.52814   1
 Au         -5.61209        -6.74607        -1.45937   1
 Au         -2.88815        -6.89038        -1.34854   1
 Au         -0.04063        -6.73905        -1.29356   1
 Au          2.82797        -6.75381        -1.21133   1
 Au          5.60297        -6.53471        -1.12288   1
 Au         -5.72139        -4.01369        -1.84989   1
 Au         -3.02643        -4.14832        -1.67528   1
 Au         -0.07673        -3.91075        -1.64851   1
 Au          2.95084        -3.80823        -1.52059   1
 Au          5.67380        -3.76333        -1.42576   1
 Au         -5.90700        -1.14875        -2.23996   1
 Au         -3.10726        -1.27538        -2.19434   1
 Au         -0.19564        -1.02322        -1.98591   1
 Au          2.79830        -1.05619        -1.76160   1
 Au          5.57675        -0.88629        -1.64057   1
 Au         -5.79417         1.56846        -2.84852   1
 Au         -2.92569         1.50118        -2.38576   1
 Au         -0.16324         1.81248        -2.29477   1
 Au          2.79655         1.74102        -2.33685   1
 Au          5.67209         1.82398        -2.07384   1
 Au         -5.70695         4.30294        -2.93608   1
 Au         -2.85181         4.36700        -2.79770   1
 Au         -0.06737         4.79151        -2.67923   1
 Au          2.87580         4.57642        -2.47521   1
 Au          5.55085         4.56558        -2.32394   1
 Au         -4.07116        -5.62597        -3.62801   1
 Au         -1.30813        -5.68162        -3.51923   1
 Au          1.53669        -5.57502        -3.35966   1
 Au          4.27601        -5.51928        -3.20343   1
 Au         -4.34118        -2.90213        -4.07522   1
 Au         -1.40574        -2.79069        -3.72828   1
 Au          1.44946        -2.63191        -3.75575   1
 Au          4.44747        -2.70166        -3.69065   1
 Au         -4.26981        -0.08982        -4.37872   1
 Au         -1.40281         0.00038        -4.18168   1
 Au          1.45172         0.04579        -4.07745   1
 Au          4.42703         0.14959        -3.96128   1
 Au         -4.13613         2.66005        -4.67938   1
 Au         -1.37907         2.78446        -4.60923   1
 Au          1.30823         2.98651        -4.31481   1
 Au          4.32816         2.90041        -4.20791   1
 Au         -2.71353        -4.42976        -5.65148   1
 Au          0.10389        -4.39423        -5.48865   1
 Au          2.89319        -4.24161        -5.34390   1
 Au         -2.62099        -1.76342        -6.00004   1
 Au          0.14001        -1.67722        -5.91173   1
 Au          3.11707        -1.35187        -5.73177   1
 Au         -2.56395         0.88657        -6.37723   1
 Au          0.12938         1.17145        -6.21993   1
 Au          2.87571         1.43746        -5.91687   1
 Au          1.09844        -1.12309        11.57195   2
 Au          0.85441        -0.96250        14.21335   2
 Au          0.48809        -0.68663        16.95315   2
 Au          0.19340        -0.27239        19.85031   2
 Au         -0.09571         0.08956        22.76721   2
 Au         -0.52033         0.40564        25.67533   2
 Au         -0.59766         0.67263        28.73226   2
 Au         -0.31983        -3.29274        12.91635   2
 Au         -0.63693        -3.01527        15.63479   2
 Au         -0.87922        -2.62710        18.52122   2
 Au         -1.23359        -2.21216        21.43546   2
 Au         -1.55662        -1.87955        24.31870   2
 Au         -1.77283        -1.49536        27.19439   2
 Au          2.58582        -3.00978        13.10650   2
 Au          2.24211        -2.66396        15.88107   2
 Au          1.95311        -2.25200        18.79765   2
 Au          1.60838        -1.95642        21.69385   2
 Au          1.30907        -1.64924        24.59017   2
 Au          1.05815        -1.27892        27.56246   2
 Au          3.34408        -0.10353        12.86226   2
 Au          2.97451         0.18276        15.62446   2
 Au          2.59797         0.51209        18.50545   2
 Au          2.28643         0.80032        21.38795   2
 Au          1.99105         1.17883        24.37247   2
 Au          1.58216         1.44788        27.10333   2
 Au          0.99244         1.68777        12.05315   2
 Au          0.50702         1.62213        15.11165   2
 Au          0.13186         1.96227        18.03408   2
 Au         -0.19456         2.20760        20.99606   2
 Au         -0.53459         2.60278        23.93941   2
 Au         -1.02990         3.04287        26.61197   2
 Au         -1.60854        -0.85752        12.24454   2
 Au         -1.72499        -0.38825        15.08448   2
 Au         -2.04144        -0.00934        18.03466   2
 Au         -2.32941         0.35223        20.98374   2
 Au         -2.71558         0.72735        23.80131   2
 Au         -3.04952         1.17952        26.59162   2
 Au         -1.72444        -5.26615        14.48400   2
 Au         -2.02544        -4.86064        17.21688   2
 Au         -2.26823        -4.55173        20.09547   2
 Au         -2.63216        -4.16169        23.02239   2
 Au         -2.92382        -3.75374        25.77161   2
 Au          1.18974        -4.91832        14.67102   2
 Au          0.89632        -4.56946        17.46099   2
 Au          0.55040        -4.12775        20.36058   2
 Au          0.23716        -3.88470        23.24229   2
 Au         -0.09288        -3.58825        26.10696   2
 Au          4.03245        -4.52803        14.99167   2
 Au          3.79192        -4.22305        17.77901   2
 Au          3.47312        -3.94854        20.64765   2
 Au          3.11301        -3.58445        23.46217   2
 Au          2.76596        -3.27626        26.28333   2
 Au          4.67979        -1.80350        14.65981   2
 Au          4.37929        -1.43920        17.45071   2
 Au          4.03532        -1.09487        20.29813   2
 Au          3.68546        -0.84177        23.25862   2
 Au          3.45775        -0.55435        26.09961   2
 Au          5.32743         1.06159        14.46856   2
 Au          4.99544         1.34311        17.23536   2
 Au          4.72035         1.69336        20.10966   2
 Au          4.31955         1.96526        22.99480   2
 Au          4.16494         2.36721        26.10271   2
 Au          2.94972         2.44641        13.92797   2
 Au          2.57851         2.72790        16.77951   2
 Au          2.21336         3.02321        19.69071   2
 Au          1.85615         3.36482        22.60879   2
 Au          1.61919         3.79630        25.49807   2
 Au          0.47351         3.88247        13.55471   2
 Au          0.08591         4.18710        16.32442   2
 Au         -0.26608         4.56956        19.22241   2
 Au         -0.57458         4.85167        22.07437   2
 Au         -0.92932         5.22738        24.78731   2
 Au         -1.69665         1.87745        13.32058   2
 Au         -2.07782         2.21046        16.15606   2
 Au         -2.37229         2.56494        19.13962   2
 Au         -2.72753         2.96037        22.05557   2
 Au         -3.18399         3.38603        24.81524   2
 Au         -3.94433        -0.00917        13.44496   2
 Au         -4.20353         0.37307        16.27721   2
 Au         -4.56015         0.72658        19.18716   2
 Au         -4.88210         1.04716        22.00662   2
 Au         -5.20576         1.38427        24.75744   2
 Au         -2.86182        -2.74494        13.82663   2
 Au         -3.10891        -2.33561        16.66546   2
 Au         -3.40042        -1.90654        19.64884   2
 Au         -3.77843        -1.56661        22.55028   2
 Au         -4.10346        -1.22300        25.40025   2
 Au         -3.07163        -7.12935        16.13774   2
 Au         -3.38695        -6.87170        18.88853   2
 Au         -3.68658        -6.46810        21.66531   2
 Au         -3.98732        -6.04508        24.40643   2
 Au         -0.20034        -6.85254        16.20878   2
 Au         -0.54407        -6.46146        19.01938   2
 Au         -0.80062        -6.16531        21.89827   2
 Au         -1.15750        -5.85309        24.73146   2
 Au          2.65717        -6.47478        16.46603   2
 Au          2.29356        -6.17550        19.32572   2
 Au          2.00081        -5.85509        22.14122   2
 Au          1.69628        -5.56035        25.00515   2
 Au          5.50657        -6.12081        16.86486   2
 Au          5.30491        -5.93943        19.57031   2
 Au          4.89229        -5.63992        22.33494   2
 Au          4.51222        -5.20853        25.08341   2
 Au          6.19713        -3.42348        16.43659   2
 Au          5.87966        -3.07912        19.29218   2
 Au          5.52357        -2.77721        22.15381   2
 Au          5.27238        -2.50798        25.05221   2
 Au          6.76838        -0.65305        16.21025   2
 Au          6.47075        -0.28266        19.05754   2
 Au          6.06499         0.02571        21.93964   2
 Au          5.74937         0.32868        24.75963   2
 Au          7.32271         2.17578        16.10493   2
 Au          7.14971         2.54462        18.83667   2
 Au          6.75589         2.85511        21.64646   2
 Au          6.36784         3.03682        24.37366   2
 Au          4.94814         3.66600        15.53301   2
 Au          4.58370         3.93699        18.37861   2
 Au          4.24438         4.22091        21.25206   2
 Au          3.98341         4.47907        24.17234   2
 Au          2.52923         5.05736        15.05793   2
 Au          2.13682         5.29842        17.93535   2
 Au          1.81180         5.60737        20.82473   2
 Au          1.53187         5.99229        23.66951   2
 Au          0.08444         6.38081        14.73352   2
 Au         -0.30873         6.80877        17.44659   2
 Au         -0.60612         7.19349        20.29469   2
 Au         -0.93803         7.38550        23.01412   2
 Au         -2.06350         4.46364        14.50545   2
 Au         -2.50281         4.78474        17.41666   2
 Au         -2.76803         5.16599        20.23653   2
 Au         -3.14201         5.62725        23.11023   2
 Au         -4.27447         2.60380        14.46524   2
 Au         -4.60237         2.92596        17.34336   2
 Au         -4.93331         3.28642        20.19181   2
 Au         -5.34160         3.72559        23.08513   2
 Au         -6.39044         0.75145        14.68301   2
 Au         -6.82524         1.09375        17.39221   2
 Au         -7.19879         1.31253        20.20744   2
 Au         -7.37748         1.69603        22.93945   2
 Au         -5.38068        -1.91148        14.96330   2
 Au         -5.56399        -1.56538        17.85696   2
 Au         -5.96912        -1.22989        20.76192   2
 Au         -6.38122        -0.86002        23.57680   2
 Au         -4.29462        -4.60146        15.51315   2
 Au         -4.52679        -4.15633        18.34931   2
 Au         -4.81061        -3.86462        21.19369   2
 Au         -5.18526        -3.49992        24.05067   2
 Au         -1.54294        -8.63897        17.86087   2
 Au         -1.83209        -8.36442        20.64501   2
 Au         -2.10166        -7.98735        23.37332   2
 Au          1.24456        -8.39995        18.06676   2
 Au          0.87314        -8.14397        20.79041   2
 Au          0.64722        -7.80145        23.61971   2
 Au          4.01874        -7.99921        18.33744   2
 Au          3.69347        -7.80083        21.11615   2
 Au          3.37945        -7.41118        23.84148   2
 Au          7.54545        -4.93023        18.35249   2
 Au          7.24394        -4.65703        21.12232   2
 Au          6.83286        -4.38183        23.86350   2
 Au          8.19727        -2.24766        18.00207   2
 Au          7.96149        -1.90311        20.80936   2
 Au          7.48375        -1.63267        23.67408   2
 Au          8.70504         0.50133        17.80357   2
 Au          8.38825         0.79149        20.64597   2
 Au          7.99021         1.07261        23.43120   2
 Au          6.87985         4.69744        17.14045   2
 Au          6.53722         5.09255        19.90889   2
 Au          6.18249         5.29375        22.75595   2
 Au          4.52495         6.14744        16.79738   2
 Au          4.17283         6.56784        19.54053   2
 Au          3.89007         6.71421        22.36157   2
 Au          2.14575         7.45392        16.35431   2
 Au          1.76537         7.74920        19.10971   2
 Au          1.50209         8.03801        21.93566   2
 Au         -2.42158         6.86520        15.72763   2
 Au         -2.84313         7.27594        18.53527   2
 Au         -3.09190         7.65432        21.27237   2
 Au         -4.62460         5.10122        15.70081   2
 Au         -5.02761         5.52582        18.48906   2
 Au         -5.23685         5.84179        21.27309   2
 Au         -6.71425         3.30821        15.74387   2
 Au         -7.05933         3.63665        18.50721   2
 Au         -7.29204         3.93715        21.23536   2
 Au         -7.71648        -1.20295        16.20670   2
 Au         -8.04946        -1.04729        18.89139   2
 Au         -8.36361        -0.55334        21.74204   2
 Au         -6.69448        -3.77540        16.68298   2
 Au         -7.03763        -3.58104        19.46840   2
 Au         -7.26010        -3.12787        22.22684   2
 Au         -5.51674        -6.36518        17.19108   2
 Au         -5.86964        -6.03557        19.95758   2
 Au         -6.17270        -5.65608        22.63188   2
 Au         -2.94939        -8.05804        37.03864   2
 Au         -0.26100        -8.23758        36.90534   2
 Au          2.50167        -8.24295        36.90249   2
 Au         -5.79078        -5.12360        37.01792   2
 Au         -2.90428        -5.30339        36.88940   2
 Au         -0.13888        -5.47188        36.86162   2
 Au          2.63446        -5.50481        36.85226   2
 Au          5.50182        -5.66480        36.86014   2
 Au         -8.29326        -2.35871        37.06348   2
 Au         -5.64482        -2.32768        36.91170   2
 Au         -2.85423        -2.36617        36.93471   2
 Au         -0.01096        -2.56325        36.81441   2
 Au          2.80948        -2.71843        36.78583   2
 Au          5.67592        -2.85522        36.80300   2
 Au          8.44021        -2.95916        36.82523   2
 Au         -5.63525         0.56636        36.90083   2
 Au         -5.40255         3.41835        36.73767   2
 Au         -2.70804         0.42943        36.77265   2
 Au          0.08363         0.31619        36.71121   2
 Au          2.97596         0.19180        36.79608   2
 Au          5.92048         0.04092        36.79002   2
 Au          8.68389        -0.13652        36.77202   2
 Au         -8.06857         3.48213        36.69286   2
 Au         -6.82740         4.75184        38.77541   2
 Au         -2.56449         3.30327        36.73071   2
 Au          0.23662         3.08962        36.67081   2
 Au          3.02441         2.94351        36.73311   2
 Au          5.91885         2.83122        36.83308   2
 Au          8.60898         2.68079        36.77364   2
 Au         -5.30797         6.16948        36.64208   2
 Au         -2.45888         6.10720        36.63848   2
 Au          0.37723         5.99107        36.66403   2
 Au          3.17476         5.82425        36.72577   2
 Au          6.08037         5.68828        36.81134   2
 Au         -2.28614         8.78031        36.54450   2
 Au          0.49421         8.74900        36.56953   2
 Au          3.22604         8.54320        36.68078   2
 Au         -4.34561        -6.47816        38.94659   2
 Au         -1.57006        -6.81239        39.00502   2
 Au          1.24475        -6.89088        38.87679   2
 Au          3.98446        -6.96943        38.84749   2
 Au         -7.03017        -3.70300        39.03960   2
 Au         -4.26456        -3.74053        39.02441   2
 Au         -1.44545        -3.93371        38.90262   2
 Au          1.35660        -4.05605        38.92706   2
 Au          4.20806        -4.17797        38.88357   2
 Au          6.98600        -4.30873        38.83342   2
 Au         -6.93944        -0.80680        39.00124   2
 Au         -4.21854        -0.89122        39.00224   2
 Au         -1.30895        -1.03783        38.84098   2
 Au          1.54194        -1.14857        38.76978   2
 Au          4.42243        -1.35682        38.84674   2
 Au          7.24410        -1.48633        38.83269   2
 Au         -6.98073         2.04332        38.81629   2
 Au         -4.16485         1.91664        38.83951   2
 Au         -1.21029         1.79326        38.82281   2
 Au          1.60483         1.68380        38.80336   2
 Au          4.48719         1.49049        38.81253   2
 Au          7.32258         1.35733        38.77695   2
 Au         -6.34959         7.39539        38.76271   2
 Au         -3.99056         4.88009        38.79852   2
 Au         -1.11420         4.73411        38.79483   2
 Au          1.69500         4.53979        38.75605   2
 Au          4.52196         4.35241        38.77752   2
 Au          7.29432         4.23032        38.79020   2
 Au         -3.70942         7.63681        38.66215   2
 Au         -0.89455         7.57504        38.62134   2
 Au          1.83646         7.33936        38.74010   2
 Au          4.59865         7.15803        38.69953   2
 Au         -5.60786        -5.06347        40.95818   2
 Au         -2.94326        -5.27386        41.01021   2
 Au         -0.03860        -5.40649        40.98362   2
 Au          2.76722        -5.54408        40.97661   2
 Au          5.50394        -5.55661        40.78599   2
 Au         -5.64794        -2.25087        41.04318   2
 Au         -2.82291        -2.40699        40.95173   2
 Au          0.06621        -2.54382        40.87150   2
 Au          2.87956        -2.65406        40.91128   2
 Au          5.69175        -2.84296        40.82169   2
 Au         -5.59112         0.64081        40.91380   2
 Au         -2.72286         0.51879        40.94220   2
 Au          0.18951         0.31399        40.81549   2
 Au          3.07224         0.20880        40.92210   2
 Au          5.88946         0.09935        40.84608   2
 Au         -5.48684         3.46487        40.82446   2
 Au         -2.60863         3.38428        40.77522   2
 Au          0.28606         3.30644        40.89057   2
 Au          3.17019         3.03463        40.83342   2
 Au          5.98658         2.89081        40.82256   2
 Au         -5.18623         6.23249        40.78962   2
 Au         -2.44719         6.19337        40.80168   2
 Au          0.41863         6.09448        40.77826   2
 Au          3.19365         5.94007        40.81203   2
 Au          5.93400         5.62945        40.65815   2
 Au         -4.20219        -3.63560        42.98189   2
 Au         -1.36393        -3.86050        42.96266   2
 Au          1.39252        -3.99702        42.99008   2
 Au          4.25460        -3.98760        42.83613   2
 Au         -4.19599        -0.87517        42.96335   2
 Au         -1.36242        -0.97133        42.91428   2
 Au          1.50637        -1.09491        42.93212   2
 Au          4.36094        -1.25133        42.87682   2
 Au         -4.12107         2.03350        42.82348   2
 Au         -1.23432         1.96360        42.84884   2
 Au          1.66241         1.73703        42.86455   2
 Au          4.49367         1.58289        42.91742   2
 Au         -3.86012         4.79267        42.73831   2
 Au         -1.09904         4.77621        42.80812   2
 Au          1.81305         4.62420        42.84211   2
 Au          4.57492         4.37041        42.79030   2
 Au         -2.77640        -2.21955        44.80120   2
 Au          0.04163        -2.34419        44.86851   2
 Au          2.82910        -2.50088        44.76084   2
 Au         -2.73183         0.65385        44.78176   2
 Au          0.09861         0.40601        44.85321   2
 Au          2.89842         0.25388        44.83601   2
 Au         -2.53361         3.44362        44.72704   2
 Au          0.27440         3.25742        44.77966   2
 Au          3.07550         3.06743        44.70042   2
 Au         -4.44794        -6.66499        35.06846   2
 Au         -1.65375        -6.86301        34.89006   2
 Au          1.18475        -6.94490        34.85795   2
 Au          4.01202        -7.00618        34.92418   2
 Au         -7.21284        -3.71313        35.04400   2
 Au         -4.40036        -3.84394        34.94161   2
 Au         -1.50636        -3.96579        34.81381   2
 Au          1.29722        -4.12347        34.72234   2
 Au          4.17044        -4.18536        34.84434   2
 Au          6.94231        -4.30965        34.86031   2
 Au         -7.13275        -0.90600        35.04864   2
 Au         -4.34770        -0.98608        34.78838   2
 Au         -1.42447        -1.15520        34.76138   2
 Au          1.44415        -1.16616        34.67953   2
 Au          4.31618        -1.30511        34.72340   2
 Au          7.26612        -1.47444        34.83188   2
 Au         -6.90188         2.01340        34.74094   2
 Au         -4.13409         1.79611        34.68858   2
 Au         -1.28719         1.64957        34.65102   2
 Au          1.62289         1.60176        34.58285   2
 Au          4.49692         1.44938        34.68086   2
 Au          7.38051         1.35477        34.78291   2
 Au         -6.72262         4.81323        34.66830   2
 Au         -3.93265         4.69455        34.63111   2
 Au         -1.09338         4.58422        34.59074   2
 Au          1.76046         4.50382        34.58929   2
 Au          4.57655         4.31311        34.74662   2
 Au          7.37343         4.23173        34.81918   2
 Au         -3.68835         7.45993        34.61120   2
 Au         -0.92196         7.47779        34.57182   2
 Au          1.98058         7.30427        34.57780   2
 Au          4.70141         7.10846        34.82210   2
 Au         -5.93029        -5.24051        33.16925   2
 Au         -3.18043        -5.50414        32.99715   2
 Au         -0.20248        -5.57255        32.77185   2
 Au          2.72029        -5.61609        32.83088   2
 Au          5.45123        -5.74705        32.99804   2
 Au         -5.98083        -2.45719        32.97670   2
 Au         -3.03546        -2.57003        32.76101   2
 Au         -0.12698        -2.68462        32.64640   2
 Au          2.85824        -2.71063        32.74762   2
 Au          5.74691        -2.90841        32.78538   2
 Au         -5.76470         0.43483        32.80502   2
 Au         -2.86857         0.28898        32.65110   2
 Au          0.03290         0.08651        32.61255   2
 Au          2.98747         0.10214        32.53834   2
 Au          5.80764        -0.00739        32.73259   2
 Au         -5.51966         3.26918        32.69911   2
 Au         -2.66181         3.13192        32.57437   2
 Au          0.26856         3.09163        32.54925   2
 Au          3.19539         2.96723        32.59046   2
 Au          6.04484         2.86062        32.69275   2
 Au         -5.15995         5.97517        32.63685   2
 Au         -2.40713         6.05166        32.61430   2
 Au          0.48490         5.96546        32.62356   2
 Au          3.43795         5.80639        32.62235   2
 Au          6.09020         5.56512        32.78543   2
 Au         -4.62264        -4.05318        31.12878   2
 Au         -1.84579        -4.25921        30.88893   2
 Au          1.46603        -4.14842        30.81470   2
 Au          4.34385        -4.26700        30.98828   2
 Au         -4.58303        -1.26585        30.92577   2
 Au         -1.57036        -1.38151        30.60491   2
 Au          1.35151        -1.28086        30.43221   2
 Au          4.41629        -1.47836        30.82455   2
 Au         -4.33997         1.73596        30.80557   2
 Au          1.50902         1.52187        30.59505   2
 Au          4.66212         1.47709        30.58916   2
 Au          5.58672         2.59175        28.31077   2
 Au         -3.95029         4.49845        30.61534   2
 Au         -1.16635         4.56362        30.71165   2
 Au          1.89995         4.59816        30.76149   2
 Au          4.76781         4.26312        30.66823   2
 Au         -3.27715        -2.82695        28.98705   2
 Au         -0.12333        -6.04938        30.09946   2
 Au          3.01592        -2.89692        28.92634   2
 Au         -3.25338         0.02103        28.97601   2
 Au         -0.28434        -3.30737        28.87905   2
 Au          3.27292         0.07954        28.77127   2
 Au         -2.42817         2.75557        29.00404   2
 Au          0.30868         3.34145        28.87990   2
 Au          3.08638         3.04543        28.76411   2
