          22
Au Au      -73.839208        0.000000      -73.839208 -73.83921   0.00000
Au      0.48685312     -2.38839616      5.86411318
Au      3.66968345     -1.46266181      3.94491011
Au      2.33008552     -5.56794889      4.75701747
Au      6.78369899     -1.00661723      8.42461932
Au      8.00837350     -3.48710209      8.34272996
Au      6.05371695     -2.78456144      4.35137124
Au      2.54855784     -0.62102402      6.28667216
Au      7.88402517     -1.83146682      6.12790929
Au      5.95782962     -5.48541805      8.07786542
Au      3.99493106     -4.07740483      3.18462194
Au      5.29891252     -0.61579610      6.01201557
Au      1.56022390     -3.19383506      3.62338039
Au      7.64359337     -4.54640036      5.92013643
Au      4.07750946     -1.30260741      8.47618725
Au      1.56373785     -2.25422228      8.25680191
Au      5.60772985     -3.09002802      7.04954060
Au      3.50189903     -4.08635429      8.70591509
Au      3.14487197     -3.26741965      5.93245544
Au      5.78965547     -3.15687028      9.78905869
Au      3.44085221     -6.22836279      7.13888125
Au      5.12980581     -5.30722418      5.30937317
Au      1.19276070     -4.71523035      7.12981849
