          33
Au Au     -112.503102        0.000000     -112.503102-112.50310   0.00000
Au      0.13894336      2.53741451     -0.49764247
Au     -3.12668058      0.52748535      3.59587106
Au      4.61777869      2.30203023      0.08798722
Au      0.88565690     -0.31331928      3.08440830
Au     -0.18611543     -2.30992835      4.75656721
Au     -3.54344440      2.66738061      2.12764006
Au      2.47713546     -2.40249323      4.09601376
Au     -1.36829065      4.03337815      1.37589130
Au     -0.47898177     -2.04336925     -2.15391602
Au      3.43005245      0.15026503      3.98952268
Au     -2.68735459      2.53575962     -0.38522707
Au     -1.39610245      2.69404013      3.88800870
Au      2.05467069     -2.35747481     -1.12913108
Au      1.56826899     -0.58386936      5.86586424
Au      2.09109616      1.06590350      0.83517680
Au      2.46472697      3.86576707      0.41189470
Au      1.36093055      1.85303407      4.74073776
Au      4.74973787      0.19161858      1.65268132
Au      3.56375429      2.50696796      2.63765454
Au      2.80893122     -1.65896624      1.44226464
Au     -1.08509803      1.20516139      1.61659914
Au      0.58674554     -3.13599146      2.30405327
Au     -2.26178833     -2.15973356     -0.06434348
Au      1.13170532      0.14811515     -1.85620365
Au     -1.57051727      0.27413195     -1.18726138
Au     -1.66316378     -1.47216616      2.54989137
Au     -0.07723864     -3.77738723     -0.20506647
Au      0.20931524     -1.08483560      0.44848745
Au      3.73711706     -0.19009079     -0.89088876
Au     -3.44739360      0.13320863      0.88548826
Au      0.89126622      3.07725215      2.41838430
Au      2.67453374      2.29175153     -1.72294664
Au     -0.90680852      0.29231271      5.07946231
