          33
Au Au     -112.463894        0.000000     -112.463894-112.46389   0.00000
Au     -0.23271143      2.15843679     -2.22490729
Au     -2.61329102     -0.20465271      3.68956232
Au      0.81332718      2.74007321      0.29574243
Au     -0.77384305      0.81090113      1.96530133
Au     -1.18255746     -2.53090596      3.39960096
Au     -2.65266945      2.54914146      3.29143415
Au      2.76076988     -2.20441141      2.64263892
Au     -1.87354179      2.97646855      0.68811117
Au     -1.03870257     -2.16815046     -1.05910683
Au      3.51795977     -0.20652040      4.17501324
Au      1.89866377      1.96673898      4.28881543
Au      1.40582699     -2.02098588     -2.33484851
Au      2.86898108     -1.95593107     -0.03373905
Au      0.77866693     -0.69596973      3.94926529
Au      2.05354854      0.67711796      1.87256527
Au     -0.09077436      3.33978163      2.87008996
Au      0.98711712      0.17111781     -0.76026762
Au      3.80427347      2.14788555      0.33307060
Au      4.42258024      1.94685221      2.97177452
Au      0.85639153     -4.09305890      2.45383234
Au     -3.60139187      0.99316387      1.37967985
Au     -1.38673923     -3.93158776      1.04541932
Au     -2.48172529     -1.45033339      1.22780553
Au      1.76305018      0.46113907     -3.43778964
Au     -0.71987012     -0.37375132     -3.03033962
Au      2.51355344      3.63114634      2.22094944
Au      0.36828280     -1.67110108      1.28652207
Au      0.96894731     -3.87984690     -0.28432920
Au      3.65121005      0.14472608     -1.47982853
Au      4.50222908     -0.32360811      1.44432056
Au     -1.80401079      0.54114675     -0.65464935
Au      2.40978620      2.54154551     -1.92492400
Au     -0.71621781      1.41833869      4.75548921
