          34
Au Au     -116.088656        0.000000     -116.088656   0.00000   0.03150
Au      0.38716379      1.80055441     16.87984357
Au     -0.78144438      4.10859527     17.96323551
Au      1.76870334      3.56424145     18.75205235
Au      5.75420077      6.63930858     14.36288587
Au      3.70761631      2.27235273     13.84042903
Au      2.48890085      3.28441050     16.01507302
Au      5.17206049      7.33491461     19.07771043
Au      6.55105311      6.06447753     16.99030404
Au      4.74080413      1.73310509     16.52476591
Au      2.65049857      1.06400036     18.15665499
Au      6.05732825      4.94760140     19.61725989
Au      3.77524331      8.46703326     13.91546448
Au      1.85448551      8.32411356     15.95031284
Au      1.15402105      8.85422593     13.39403400
Au     -0.75367517      8.59640028     15.34196624
Au      2.45479738      6.70363324     12.36745676
Au      3.15523022      5.95814327     14.93812237
Au     -0.27441738      3.91839137     15.26570242
Au      6.59595955      3.41748546     17.52731708
Au      3.35897014      5.40568798     20.13119505
Au     -1.46310724      6.18214471     16.32195915
Au      4.53988326      7.86682023     16.50540880
Au      1.77574016      4.17286743     13.27829736
Au      4.04988446      5.16673812     17.54202024
Au      2.58335304      0.42139048     15.59103826
Au      1.20721222      5.68535031     16.90921185
Au      2.55144389      7.52215334     18.54142898
Au      0.62349080      5.88730027     19.58567930
Au     -0.11705660      7.90833747     17.88974385
Au      0.39723882      6.41319295     14.23933171
Au      5.31200966      4.09433502     15.23014742
Au      4.41437067      2.88237805     19.08737598
Au      4.38804691      4.80375366     12.77151321
Au      0.91565224      1.77820201     14.12405422
