          34
Au Au     -116.088656        0.000000     -116.088656-116.08866   0.03150
Au      5.04518336     -1.22846916      9.54358723
Au      5.76549584      2.61585334     10.24531718
Au      6.00975186      2.10714306     12.86696371
Au      8.55249077      1.36422546      6.53597954
Au      5.29590349      3.15820292      7.56503827
Au      8.22397002      0.95363607     13.60266475
Au      9.23763117      0.88044723      9.12799373
Au      7.46966680     -4.25642029      9.32081926
Au      9.78898380     -1.09950567      7.05430497
Au      8.31029744     -1.67385297     13.30455908
Au     10.92478766     -1.21664816      9.50216198
Au      2.34730119     -0.85994382     10.09829809
Au      8.33573491      2.45240285     11.25826484
Au      4.72197984     -3.93024248      9.92080325
Au      4.20644559      0.59119958     11.54432502
Au      7.19305004     -1.00008380      6.17168126
Au      5.73049382     -3.05530841      7.53413109
Au      3.73194879      1.25284771      8.88579095
Au      8.25573875     -3.42472719      6.71165614
Au      7.06089584      0.08875395     11.09556343
Au      3.37691117      1.74706705      6.26328933
Au      1.94489169     -0.23059022      7.50319766
Au     10.05897802     -3.54228712      8.58482449
Au      5.81565570     -0.64192573     13.39379943
Au      6.58828326     -2.69105564     11.46486531
Au      3.07041521     -2.60620149      8.18041385
Au      3.95940257     -2.12554883     11.90300455
Au      7.91398570     -1.62984106      8.94367661
Au      9.30878056     -2.78349050     11.05610361
Au      4.50024848     -0.65798338      6.77238470
Au      9.78158681     -0.06164567     11.65655183
Au      7.84996784      3.15014476      8.55760445
Au      6.50549579      0.77203067      8.27102013
Au      5.98019111      1.42458350      5.62149241
