          34
Au Au     -116.077066        0.000000     -116.077066   1.00000   4.00000
Au     -1.55422166      2.43400673      1.25969289
Au      3.74815604      1.54458837      6.91860555
Au     -1.80000390     -1.52074505      6.98075672
Au     -1.95780263     -0.25394098      1.72313479
Au     -0.05999740     -4.02634601      3.21699625
Au      4.21137902     -0.92677800      2.95764057
Au     -1.49165379      1.32107001      7.03721865
Au     -2.39970648     -2.97710054      2.28914228
Au     -3.50372424      1.67446663      2.97814919
Au      0.56220335     -0.26683076      6.06377882
Au     -0.90632062      1.26232790      3.90962798
Au     -1.01478385     -1.55702560      4.11855693
Au      2.41835057     -2.98875073      2.53831064
Au      0.75199412      3.06117889      2.70734264
Au      3.32309740     -0.74832310      5.54297412
Au      0.54874392      0.80207021      1.11539797
Au     -2.97488860      2.79614663      5.38498940
Au      1.99469239      1.86086990      4.85661753
Au      2.43280019     -0.47532073      8.11925433
Au      1.15877221      1.94345130      7.58839098
Au      4.62337535      1.32230038      4.38009415
Au      0.65109995     -2.54053149      7.66680331
Au      1.50275707     -2.79623275      5.09407561
Au     -0.94444874     -3.80174491      5.78490352
Au     -4.16279960     -1.06831178      2.99173508
Au     -3.30304283     -2.74713462      4.91195864
Au      3.01127456      1.47292111      2.21380878
Au     -0.23609039      3.31335208      5.57544652
Au     -1.72551561      3.96543536      3.38960768
Au      1.48859673     -0.50176294      3.37407403
Au     -3.15500638      0.05115534      5.19753421
Au      2.61074663     -0.91481699      0.81333587
Au     -0.14172619     -0.21604894      8.80050896
Au      0.11855135     -2.00811055      1.41223226
