          35
Au Au     -119.595298        0.000000     -119.595298-119.59530   0.06818
Au     -1.39373298     -4.50131236      3.74606468
Au      0.53160801     -4.78759005      5.69536636
Au      3.12239348     -2.19620224      5.30443684
Au      4.21123189      1.34795257      2.29706408
Au      4.17141733      0.42500686      4.87061238
Au      5.19834118     -4.05135228      6.05754406
Au      0.81253956     -1.56504735      1.25382352
Au      2.60270572      2.49897806      4.11004385
Au      1.85549055     -2.07175276      8.84720583
Au      0.36066346     -4.40149878      8.39621934
Au      1.07573376      2.05654544      6.33351659
Au      4.41278183     -2.03339727      7.74552451
Au      0.96066307     -5.72212790      3.16667837
Au     -1.72763748     -2.42584339      2.02887050
Au      0.05628293     -4.18095831      1.24882230
Au      3.16633641     -1.16144182      2.64864489
Au      5.83763590     -0.64650354      2.98538743
Au      1.36985712     -0.04873251      4.56285471
Au      5.90902157     -1.55363292      5.50904431
Au      1.54044171      1.04086802      1.99946628
Au     -2.32386480     -1.10987415      7.25955891
Au      4.97058323     -3.16554511      3.45179736
Au      0.04347093      0.14908098      8.07988898
Au     -0.84120720     -0.05297868      2.88147486
Au     -1.12783354      0.61437150      5.60900451
Au      2.63863647     -3.80378985      2.02643601
Au      0.74099808     -2.77653120      3.70069155
Au     -0.85050002     -2.19931089      9.12989212
Au      3.08541014     -4.86761708      4.54451455
Au     -1.77960481     -1.95205723      4.71648121
Au     -1.73901070     -3.72053638      6.82288810
Au      2.76186786     -4.15418980      7.25584119
Au      2.59908369     -0.07795571      7.12333843
Au      0.43373773     -2.05841144      6.50763090
Au     -0.03463344      2.36485704      3.84173369
