          35
Au Au     -119.595299        0.000000     -119.595299-119.59530   0.00000
Au     -5.07276193     -6.55376660      3.63990750
Au     -5.85633430     -1.53421898      8.78267728
Au     -0.17993165     -4.51789472      9.93840069
Au     -1.65060184     -6.79496495      9.79088369
Au     -1.60470233      0.14154988      8.95655790
Au     -2.12665890     -7.30814064      7.08746656
Au     -5.60231649     -4.20425343      9.48884706
Au     -3.26231238     -2.29999207      8.35559996
Au     -7.09988652     -3.54005072      7.30337586
Au     -6.78527380     -5.47967764      5.40354359
Au     -3.31311285     -5.03057795      2.34379226
Au     -2.91711020     -4.41752298     10.23070270
Au     -4.97434288     -3.87554350      4.18348763
Au     -5.24077760     -1.89998494      6.13988038
Au     -4.80273154     -7.23232873      6.24452913
Au     -1.02514331     -1.27492969      3.79388704
Au      0.11870413     -2.84610964      5.70242056
Au     -6.68758059     -6.17337252      7.96356451
Au     -4.12949354     -6.52088790      8.83081465
Au     -2.83348640     -5.68641957      4.96169393
Au     -4.54776406     -4.53940984      6.92977923
Au     -0.15166420     -5.60155178      5.63325997
Au     -3.49002929     -0.41632749      4.64542986
Au     -3.97526037     -0.03012355     10.05471404
Au     -1.39377234     -0.56449782      6.39052732
Au      0.33304932     -6.69280720      8.08085860
Au     -0.41298216     -2.25237052      8.38944842
Au     -1.86828308     -1.91818274     10.69936674
Au     -1.71629476     -4.67127236      7.66914118
Au     -1.09126521     -4.02159265      3.51126122
Au      1.25888426     -4.27917459      7.64863804
Au     -2.65308557     -2.89943516      5.53304002
Au     -3.20820704     -2.38407189      2.76933870
Au     -4.51143215     -2.37214481     11.09540984
Au     -3.89594099      0.16219012      7.33933037
