          35
Au Au     -119.453391        0.000000     -119.453391-119.45339   0.00000
Au      0.73874086      2.25453270      1.38233507
Au     -1.95708966     -3.26680305     -1.61303966
Au     -2.58301685     -2.62009659      0.93865189
Au      1.24687962     -0.41868199      2.25631664
Au      4.20718271     -0.19201053     -2.08687252
Au      1.88531425     -2.98216903      1.38840358
Au      1.64318954     -0.56377558     -2.84866370
Au     -0.04981112     -1.51671503     -0.14460374
Au      2.81539438     -2.20797001     -0.98486245
Au     -3.30620616      0.78789089      3.99555949
Au      2.68408831      2.00567984     -2.47987073
Au      0.06535231      1.66220371     -3.36982558
Au      3.04701498      3.11515590      0.02706451
Au      1.20383106      1.66052761      4.00820706
Au     -3.68213794      2.40485698      1.96332751
Au      4.84150177      1.16869776      0.05175883
Au      2.09071813      0.48295391     -0.30171542
Au     -2.93012809     -1.73359354      3.43782311
Au     -1.82431220      3.37213448     -2.17539275
Au      0.64150820     -3.20732559     -2.17471037
Au     -2.93680984     -0.77446636     -0.97607728
Au      3.27014454      1.48457457      2.22513850
Au     -4.18513444     -0.23454340      1.47596191
Au     -0.75930495     -0.18770379      4.23176705
Au     -0.47647491     -2.50952545      2.61413007
Au      3.81471182     -1.02353003      1.24627378
Au     -2.62720343      1.02773581     -3.08998702
Au     -0.97033863     -1.06752797     -2.89503243
Au     -0.30480360     -4.15453305      0.31413437
Au     -1.56686129      0.18581896      1.64707035
Au      0.68670898      3.38243272     -1.22383559
Au     -1.27300837      2.43154999      3.26278010
Au     -3.52999640      1.82522265     -0.62708312
Au     -1.58802681      3.36426519      0.55329978
Au     -0.78447687      1.07008860     -0.89126379
