          35
Au Au     -113.587976        0.000000     -113.587976-113.58798   1.00000
Au     -1.45563125     -2.08523133      1.26473497
Au     -1.90487182      0.69868946      0.55019181
Au     -0.75785060      3.52961022      4.26601004
Au      2.03340461     -0.95888284     -0.02439915
Au      0.78078035     -2.91786282     -2.59488149
Au     -3.34653919      3.65419864      4.90698485
Au      3.05653866     -2.41468829     -3.90004852
Au     -1.36950452     -1.92986935      3.97441111
Au      5.32365828     -3.29385349     -2.85422622
Au      0.23316151     -0.08838098      2.03409712
Au      3.21474489      1.33791190     -1.21903766
Au      0.52972957      1.32711144     -0.63538900
Au      4.54767174     -0.28450245      0.66068710
Au     -1.52266723      3.80053655      6.81501233
Au      1.34623011      1.79190274      3.84347733
Au     -1.17459278     -0.71055437      6.50813124
Au      4.34926604     -0.93411808     -2.04027411
Au     -3.52216253     -0.90203750      5.27950297
Au      1.66993211     -0.37677675     -2.68751321
Au      0.72871216     -3.35380198      0.09028689
Au     -2.80435354      1.49122410      6.49400477
Au      0.99125447     -2.62127643      2.67782816
Au      2.86674438     -0.60464237      2.83558164
Au      2.43338049      1.59776332      1.32770038
Au     -3.28305643     -0.43381261      2.56866996
Au      5.53282418     -2.62815557     -0.29307789
Au     -4.46781767      1.34397665      4.27154033
Au      3.40485412     -2.85607965      1.35738964
Au     -0.54177835     -1.12329068     -1.08260323
Au     -2.84376398      2.49162209      2.45898142
Au     -0.22690953      2.59940784      1.73110127
Au      0.91024303     -0.68452079      4.79183806
Au      0.03107377      1.70587492      6.27435866
Au      3.11600036     -3.36403144     -1.32301005
Au     -1.45944859      0.86117852      4.13680320
