          35
Au Au     -119.513956        0.000000     -119.513956-119.51396   0.00000
Au      1.15892326      3.16147632      1.70956450
Au     -2.47992842     -2.70893719     -1.49609223
Au     -3.22074917     -2.61467053      1.16002448
Au      2.91416803     -0.96357128      0.81869322
Au      3.93388448     -0.15816569     -1.61719560
Au      3.14033436      1.05306687      2.62516088
Au      2.11369762     -0.50680437     -3.62265325
Au     -0.50965591     -1.64310744     -0.02432126
Au      2.17537720     -2.31251202     -1.51162034
Au     -3.35661687      0.92714015      3.92870391
Au      2.69823526      1.99333079     -2.68729346
Au      0.07783375      1.37756843     -3.34865057
Au      3.05539735      1.88557178      0.08696857
Au      1.05733009      1.67789775      4.06897603
Au     -3.63245121      1.98676655      1.37179705
Au      1.37805285     -3.22898758      1.00462129
Au      1.25754996      0.23348728     -1.14179485
Au     -3.11584893     -1.76021501      3.79606166
Au     -1.61861794      3.21596607     -2.37020560
Au     -0.00399621     -3.81615296     -1.70951412
Au     -2.05552524     -0.20443150      1.79074848
Au      0.61483826      0.56053969      1.55198574
Au     -4.75858887     -0.46311239      2.04045309
Au     -0.81756444     -0.21927577      4.22813577
Au      1.62679171     -1.20258321      3.26941707
Au     -0.71091078     -2.53549342      2.67482897
Au     -2.49811853      0.48800084     -2.90762793
Au     -0.41649626     -1.32678036     -2.80125037
Au     -1.17429098     -4.26362779      0.60065736
Au     -3.66759071     -0.41260163     -0.52041801
Au      0.75105089      3.01664266     -1.01107291
Au     -1.25617076      2.31891652      2.79755883
Au     -3.79167117      2.23213418     -1.26678714
Au     -1.56641413      3.58963539      0.38537301
Au     -1.32361536      1.11131687     -0.58112582
