          35
Au Au     -113.475981        0.000000     -113.475981-113.47598   1.00000
Au      2.44310010     -1.81710416     -1.86245604
Au      0.86421837     -0.52857306      5.45476938
Au     -4.39368923     -0.83284364      4.27353743
Au     -3.17990217     -2.45348901      6.02516408
Au      2.56710948      0.64714102      0.29898418
Au      1.16271789      2.54222533      1.65245345
Au      4.58194082     -0.28127684     -1.69241849
Au     -1.04856845      0.89021554     -2.98522567
Au      0.81680610     -0.74655897     -3.94698867
Au     -0.16797185      0.13684896      1.44542281
Au      4.43167000      2.30620350     -1.22030823
Au      4.71020897      1.46054784     -3.79006217
Au      2.01692894      0.06358661      2.98858920
Au      3.46257622     -0.82941224     -4.16926790
Au     -0.17442582      2.00526348     -0.68681156
Au      2.07159607      3.42662666     -0.82887284
Au      2.15165047      0.99200491     -2.31780486
Au     -0.61068359     -3.00420826      5.50055461
Au      2.17226898      1.49823964     -4.93790855
Au      1.61912723     -1.85370894      0.79488386
Au     -2.91800796     -0.26366714      2.11744137
Au     -2.50561548     -2.80931741      3.33437998
Au     -1.79273339      2.23733513      1.71902149
Au     -1.35848113     -2.18579767      0.87804158
Au      0.24847807     -2.08525603      3.13658479
Au      0.54458409      3.00713579     -3.22486966
Au     -1.64330087     -0.61098611      4.56566021
Au      0.06218386     -0.82156353     -1.21896588
Au     -2.26850111      0.30857995     -0.43169521
Au     -3.45240536      0.23400085      6.54016325
Au      3.14233206      3.53321133     -3.33021353
Au     -0.12932969      1.61975324      3.85432974
Au     -1.16227809     -1.08652514      7.29121030
Au     -1.05988631      1.42284869      6.35553515
Au     -2.95563236      1.67756706      4.19463239
