          35
Au Au     -119.595299        0.000000     -119.595299-119.59530   0.00000
Au     -1.71073386      3.74359334     18.88009289
Au     -1.60099883      2.30834454     11.18231267
Au      3.53600883     -0.64468726     15.32341596
Au     -0.89637419      4.75777008     11.95838135
Au      2.34252075     -1.79671945     17.58474298
Au     -3.27298873      1.29397973     15.34213127
Au     -3.58530547      2.20203539     17.89034075
Au     -0.48224409     -1.80154991     13.00030444
Au     -1.58570302      2.90518224     13.85723687
Au      1.78328674      6.07820500     15.49726363
Au      2.67648329      4.10458884     17.13714258
Au     -2.48265442      4.04223866     16.21307234
Au     -2.87447267     -0.30375485     17.59761071
Au      0.81982580      2.73513154     18.71333580
Au      0.86399946      2.69374503     12.30175508
Au      2.08708337     -0.83520606     12.95220836
Au      1.53289248      5.22620470     12.99587915
Au      0.10132000      0.24828535     11.41818876
Au     -0.02877657      4.90871073     17.16061084
Au     -1.30862796      1.09480766     19.31889724
Au      0.95069021      3.34818759     15.08205117
Au      3.53132828      4.18784148     14.54422002
Au      4.27353008     -0.05320743     17.87772927
Au     -0.96154088      1.82580203     16.69626930
Au      1.83927047      1.02813704     16.67206846
Au      3.50468416      2.24619569     18.86595757
Au     -2.23308622      0.33289320     12.91906593
Au      0.19221842      0.71071386     14.24582046
Au     -0.74775563      5.49840951     14.55600232
Au      4.31945068      2.08215233     16.18775825
Au      2.86730183      1.60662048     13.91534636
Au     -1.72874267     -1.00431383     15.28686146
Au     -0.18170314     -0.74835016     17.61012263
Au      0.99313180     -1.75066363     15.28152215
Au      1.75963293      0.21794479     19.30247894
