          36
Au Au     -123.122977        0.000000     -123.122977-123.12298   0.11511
Au      6.72323611     -0.43549948      8.53094684
Au      4.01580598     -0.60864127      9.15105011
Au      4.30496007     -0.48671752     11.94422622
Au      2.50416666      0.51613830     15.25761362
Au      7.47436270      2.41044481      8.65410699
Au      6.05275379      1.17765935     10.58401906
Au      8.04342870     -0.75342863     10.85476218
Au      3.14605826      1.84382947     12.89276077
Au      5.80248500      3.62770109     14.93633732
Au      2.88483510     -2.50819502     10.74010801
Au      8.73021940      1.84918095     10.96752673
Au      5.74900185     -2.25700382     10.45171278
Au      5.10647879      5.91834601     11.10586926
Au      5.32176419      3.36989996     12.11155833
Au      7.96799368      3.13066917     13.21511007
Au      5.05332320      1.55799719      7.88635183
Au      1.68978433     -0.07555183     10.99978320
Au      6.67127807      5.53621544     13.18355717
Au      4.38941801     -3.11550792     12.80865563
Au      4.53627575     -1.17599189     14.72827220
Au      3.87634029      5.14086078     13.60168836
Au      7.48176674      4.31365211     10.73655965
Au      7.08849919     -0.66506189     15.49813419
Au      5.19033100      3.84398791      9.34412648
Au      0.89140525      2.51181575     11.19414336
Au      2.14376128     -1.43091864     13.31697540
Au      3.36331838      1.90903168     10.06804023
Au      7.75554128      1.86602280     15.60775424
Au      3.18987632      3.11891004     15.37031486
Au      5.06524881      1.19704729     16.13035449
Au      1.39489088      3.80534158     13.48580243
Au      0.64433316      0.95791622     13.36291305
Au      8.57076162      0.39353104     13.34310734
Au      6.70167424     -1.67173958     13.00686502
Au      5.95978136      1.07180207     13.57788183
Au      2.86376307      4.37733070     11.19228901
