          36
Au Au     -123.107645        0.000000     -123.107645-123.10764   0.07194
Au     -1.87985547      4.28729394      0.68955496
Au     -1.26741847     -2.95361157     -0.62202702
Au     -3.10026779     -0.77140178     -0.61990246
Au      2.85263802      0.61581250      3.06440709
Au      3.29548753      0.12533384     -1.80265467
Au      1.72437086     -1.67462856      1.83154238
Au      2.87243119     -2.52123050     -2.47715851
Au      0.94876610     -1.17562863     -0.99671054
Au      3.61351298     -1.87883335     -0.00892963
Au     -1.94731466      1.25537252      4.09483466
Au      1.34853249      1.86376098     -2.51963730
Au     -0.93003234      1.97602228      1.66982356
Au      3.23843712      2.68530427     -0.78127934
Au      1.16050685     -0.65213723     -3.64473487
Au     -0.85824565      1.30283616     -3.87759763
Au      4.21039600      0.69190360      0.75462917
Au      0.53816542      4.56331814      2.00215013
Au     -3.36263079      0.15833280      1.99864518
Au     -0.85474134      0.95377879     -1.06959129
Au      0.35862633     -3.23071583     -2.77190163
Au     -0.88745599     -0.78768895      1.16607341
Au      0.88090463      2.47805527      3.71587644
Au     -3.52770096      2.84362129      2.44359663
Au     -1.95405017     -1.54953715      3.62809103
Au     -3.03435211     -2.57875799      1.43145826
Au      2.79711633      3.04284073      1.83164745
Au     -3.18048652      1.05812969     -2.64974156
Au     -1.42663471     -1.16104694     -2.80328746
Au      1.41416327     -3.64967602     -0.16252952
Au     -1.44604966      3.92454217      3.62378385
Au      1.50770530      0.94964121      0.66350305
Au     -0.45194310     -3.32650596      1.97241716
Au     -3.25584940      2.02423454     -0.11093714
Au     -1.69116604      3.30294473     -2.00929389
Au      0.32526107     -0.15314631      3.61202899
Au      0.55379643      3.39752258     -0.39605414
