          36
Au Au     -123.092062        0.000000     -123.092062-123.09206   0.11348
Au     -1.94517195      4.15688944      0.31673404
Au     -1.36249253     -2.82238503     -0.92397863
Au     -2.96632024     -0.63040969     -0.82377692
Au      2.86865709      0.41299254      2.72078232
Au      3.36764668      0.31821817     -1.88884190
Au      1.43132865     -2.03937786      2.31133224
Au      2.94462345     -2.37312707     -2.13054814
Au      0.83243419     -0.78033351     -1.27583385
Au      3.10516115     -1.23012808      0.38786966
Au     -2.01478163      1.45758680      3.99474103
Au      1.26169103      1.68099938     -2.80065911
Au     -1.10445762      1.82331190      1.51089317
Au      2.68948361      3.01930625     -0.87723035
Au      1.59508043     -0.77699191     -3.88984897
Au     -1.05458716      1.40009424     -1.22123940
Au      4.31090642      1.18796583      0.47084226
Au      0.72640458      3.93939821      0.95437424
Au     -3.34173820      0.19475128      1.88271556
Au     -1.11911387      2.04553491     -3.92183324
Au      0.43820439     -2.98328240     -2.90131516
Au     -0.77307145     -0.88830607      0.99017484
Au      0.98677147      2.55776649      3.32444624
Au     -3.53572863      2.93606006      2.30429607
Au     -1.91571142     -1.55987677      3.39551975
Au     -3.14712810     -2.46304346      1.17865235
Au      3.15039002      3.08533939      1.85656498
Au     -3.35173321      1.06511251     -2.87401265
Au     -1.16465342     -0.65360535     -3.12381802
Au      1.22338683     -3.26724275     -0.15350221
Au     -1.23070925      4.06375766      3.02653370
Au      0.06509946      3.85283699     -1.68165841
Au     -0.76181819     -3.51764063      1.75000920
Au     -3.60579339      2.00570236     -0.24656740
Au     -2.57432601      3.57715244     -2.26007359
Au      0.23274741      0.02909475      3.49560015
Au      1.44212150      1.16196906      0.60348791
