          37
Au Au     -126.763907        0.000000     -126.763907-126.76391   0.03546
Au     -2.22298480      8.97238767      4.60802408
Au     -0.46140579      4.62754972      4.18510688
Au      0.40689551      3.60405078      6.51994789
Au      0.15262046     10.33032556      9.28118297
Au     -0.67813849      6.16370225      6.53935414
Au     -4.06605885      3.45192661      8.31184676
Au     -2.95161996      8.06484676      7.24905970
Au     -0.57943187      7.62302274      9.10965934
Au     -1.39195974      2.97404392      8.51730588
Au      1.93954045      8.36556971     10.02243829
Au      0.40542507     11.54697061      6.74106126
Au     -0.04622603      7.38147800      4.08727719
Au     -4.26466848      7.45178243      9.74530470
Au     -4.18049649     10.28186671      6.03695997
Au     -2.60641407      6.23675964      4.54382387
Au     -4.58160311      9.97073752      8.67325686
Au     -2.30774595      3.90908541      6.14497496
Au     -5.79320223      5.44428509      8.84513309
Au      0.45753858      4.96395539      8.87820708
Au     -0.17658563      8.84720314     11.61725130
Au     -1.81892281     11.54718228      5.22795025
Au     -0.25065755      8.92545108      6.65641939
Au     -4.72284039      7.87402561      4.98068385
Au     -2.43053508      5.57958052      8.63970005
Au     -1.30152512      4.31356012     10.87664467
Au      0.31299209     10.17608340      4.32639609
Au     -3.97361424      4.82313878     10.72690921
Au     -2.39054652      9.43547369     10.17767595
Au      1.75817745      5.67906821      5.29019157
Au     -5.74685445      7.87699896      7.46243758
Au      2.24018425      9.75165018      7.65368773
Au     -4.38574685      5.65210197      6.57520090
Au      0.58830338      6.29076525     11.25227420
Au      1.81240953      7.04453612      7.64504339
Au      2.14989519      8.41220206      5.29419070
Au     -2.10860600      6.85836797     11.33936737
Au     -2.10174757     10.77205075      7.77670592
