          38
Au Au     -130.107132        0.000000     -130.107132-130.10713   0.06849
Au      4.21883759      0.34380575      0.57020715
Au     -2.15876335     -3.19528477      3.06195516
Au     -2.79354275     -3.17895990      0.48207304
Au      1.01656398      4.19602858      0.73793205
Au      3.23279054     -0.81852682     -1.73596191
Au      0.38823358     -2.50767435      3.70435432
Au      4.50691962     -1.44814319      2.72212409
Au      2.50425285     -0.90202208      4.44161235
Au      1.44152965      0.83452197     -3.21232765
Au     -3.28897226     -0.86752262      2.00938487
Au      2.05050507     -1.02968152      1.67838782
Au     -2.53758529      2.04079547     -1.48144198
Au     -0.35207164      3.02155819      2.92069461
Au      1.04018583     -1.80502480     -2.98262866
Au      0.03504163      0.24729615      3.22800935
Au      1.47836642     -2.92125736     -0.37915533
Au      2.28051228      3.65518775      3.11568463
Au      1.58920851      1.71375879      4.89446098
Au      0.79036024     -0.21159851     -0.73288183
Au     -1.08212670      1.65478052      5.33268040
Au      3.80877214      3.09827267      1.01441793
Au      2.45087819     -3.59535471      2.18921849
Au     -2.65569527      1.52856301      3.17607505
Au     -1.22508537      1.06405702      0.81039451
Au      4.06289917     -2.43122363      0.29444582
Au     -2.89955298     -0.60961299     -0.67637241
Au     -1.67115253      3.66128566      0.55927565
Au     -1.09381417      0.05693625     -2.66118816
Au     -0.13767420     -4.19208259      1.49282323
Au      3.61747633      1.20251590      3.08665800
Au      2.83127333      1.90988818     -1.19866661
Au     -1.03067105     -2.46636392     -1.42808761
Au     -3.87273967      1.59769213      0.77213742
Au     -2.07699691     -0.88198448      4.49468193
Au      1.53749614      1.65791070      1.27501791
Au      0.13422263      2.47699442     -1.26280056
Au      0.25159438     -0.61189640      5.85043351
Au     -0.71432468     -1.62240032      1.22590552
