          38
Au Au     -130.266815        0.000000     -130.266815-130.26682   0.02740
Au      2.51003467     -5.89213292      5.67350758
Au     -0.91960074     -0.41113013      3.02952752
Au      0.84017052      1.32932406      4.22340198
Au      5.47297025      2.49237648      5.31212795
Au      3.70735382      0.62113469      4.41693021
Au      4.75020286     -1.77308944      3.34017677
Au      3.56769284      0.18757069      1.58912423
Au      7.58628899     -2.00802740      2.85509162
Au      1.24817851     -1.74851948      7.88081659
Au      4.62834753     -6.34529957      4.01837813
Au      1.93298395      0.62086387      6.63780595
Au      6.57015257     -2.26477249      5.38183069
Au      5.27368518     -2.50422219      7.79819374
Au      6.22442516     -0.21239811      1.42507616
Au      0.94234370      0.77967939      1.53315165
Au      4.10190904     -5.00798950      1.61808581
Au      6.62574186      0.24239225      4.10489214
Au      2.67413337      2.58135373      2.67152360
Au      4.77430721     -4.30177447      5.81125869
Au      0.98265261     -3.59083766      5.88948979
Au      5.31066343      2.08602510      2.61744287
Au      3.56900127     -0.55535525      8.47837923
Au      1.82581756     -1.22324243      3.39952385
Au      2.31062962     -6.64708050      2.84956708
Au      3.05298958     -2.51113780      1.18315031
Au      2.84130048     -3.91856569      3.79233092
Au      6.10339629     -4.20953664      3.36611797
Au     -0.31573661     -3.00435484      3.49723662
Au      0.30792934     -5.53442019      4.10660239
Au      2.77793958      2.99882466      5.36728656
Au      0.39449631     -1.85914008      1.11634000
Au      3.27671316     -1.82987849      5.90385803
Au      1.18823205     -4.46132325      1.67688158
Au      4.03498484      2.02450161      7.53952259
Au      5.76203753     -2.86700049      1.00692729
Au      5.44689315     -0.03948151      6.56595887
Au      0.03432294     -1.03726300      5.51553343
Au      2.93131253     -3.87343770      7.76152774
