          38
Au Au     -130.153222        0.000000     -130.153222   0.06803
Au      6.38731285    -12.20237193      5.80295264
Au      2.32427944    -10.54280330      6.28584723
Au      7.48983461     -8.38809590      7.03456334
Au      5.05325243    -11.45970662     10.27876352
Au      7.06787812     -3.91152662      8.90029543
Au      5.18217314     -7.06100824     11.55347730
Au      3.70364547     -9.40373821     11.47493116
Au      6.55790984     -9.78481216      4.58384762
Au      6.70854826     -4.74633161     11.48336651
Au      9.41840317    -11.77042571      8.48857233
Au      4.93362971     -6.86735440      7.56948217
Au      9.45747787     -6.70240049      8.16021316
Au      2.63479983     -5.32396207      7.87976175
Au      7.33189272     -5.59158365      6.76287640
Au      4.23856779    -11.24773555      4.61132331
Au      5.90278924     -7.20844087      5.01662662
Au      8.24501875     -9.09788412      9.69362989
Au      4.99887474     -4.20457079      7.07031402
Au      6.41603382     -9.57789124     11.92958051
Au      4.64324066     -4.99365799      9.70703029
Au      3.52298545     -5.95397963      5.41577042
Au      7.00477731     -6.57405907      9.40141055
Au      7.95706721     -7.16913257     11.94023506
Au      4.26560025    -12.07813956      7.52810734
Au      6.81717445    -11.09152792      8.22700960
Au     10.21735794     -9.26419644      7.82281744
Au      3.57230228     -8.59297435      4.60724774
Au      5.44913029     -8.90364253      9.42232935
Au      3.09706463     -7.35683583      9.70898062
Au      4.90867825     -9.57037565      6.74070031
Au      2.98954103    -10.06503547      8.89614920
Au      8.62491656    -10.70513023      6.12492151
Au      7.93401797    -11.55719858     10.77839508
Au      2.43208225     -7.95306790      7.05127580
Au     10.67342085    -10.33332683     10.30681094
Au     10.33067637     -7.63348142     10.58680323
Au      9.12871648     -5.15842752     10.37475279
Au      9.12538572     -9.57823717     12.30609042
