          38
Au Au     -130.266812        0.000000     -130.266812   0.05479
Au      0.33012540     -4.07620348     31.07956189
Au      5.99175308     -6.31777657     27.72605743
Au      3.31473069     -2.69076109     25.70773096
Au      3.05449002      0.12557653     25.98847934
Au      3.57044066     -6.96033994     28.82519908
Au     -0.94185890     -3.89068357     28.61714435
Au      3.49096341     -4.93335113     24.00686395
Au      1.70775456     -5.02373304     26.13080138
Au      6.55631460     -3.67531377     28.15111069
Au     -0.09797187     -1.61310977     29.87531503
Au      1.05088978     -1.65977535     32.29181258
Au      2.77904820     -5.74239687     31.19351098
Au      2.15759440     -3.88881998     33.08832627
Au      5.04784293     -2.72731957     23.60614179
Au      5.29738060     -5.28277486     30.12501658
Au      5.54314031     -2.52681305     30.43468558
Au      4.05866585     -1.42773256     28.20937588
Au      3.87466210     -4.36418624     27.91207715
Au      5.12471797     -0.12728756     24.29969647
Au      0.74639747     -1.24720553     25.42612096
Au      1.27373054     -3.42563402     23.90422296
Au      2.79244732     -3.14637375     30.31994902
Au      3.77480551     -1.56188450     32.33678590
Au      3.87057737     -6.62621107     26.13542690
Au      5.55494145      0.68439406     26.92836350
Au      1.41611412     -2.69179661     27.79930282
Au      1.37740240     -5.32291950     28.87260382
Au      5.02521744      0.13689026     30.29842188
Au      6.00843425     -1.88406999     26.12563211
Au      6.82800058     -0.97331309     28.60081704
Au      1.06148854      0.06246984     27.89612707
Au      4.68279000     -4.12920018     32.46046303
Au      3.44367115      1.32822453     28.44325146
Au     -1.15975178     -1.45313579     27.39484774
Au      5.61156011     -4.55695435     25.65096823
Au      2.78145425     -1.18588007     23.50108648
Au      2.35362509     -0.35903710     30.28578194
Au     -0.57097800     -3.60515217     25.93050389
