          40
Au Au     -137.322172        0.000000     -137.322172   0.00000
Au     -2.77253781      9.05570216      9.69305394
Au      1.88488249     10.07889850      9.34829858
Au     -0.17140475      3.70736078      8.01583060
Au      2.48639868      7.30419728      9.70682384
Au      2.12416433     10.89908251      4.57519241
Au     -1.91365786     11.75308731      6.97607806
Au     -3.53540375      7.22473113      7.76873351
Au     -0.76271349      6.36650205      7.69823735
Au     -2.53742939      5.38847741      3.29328327
Au      3.28824958      5.52034543      5.26973170
Au     -2.03572515      7.22858101      5.27949013
Au     -2.77811144      4.56773113      8.06713908
Au      2.11934511      6.40993029      2.95032488
Au      1.54234570      9.07690517      2.60579699
Au      2.88198461      8.24125789      4.87435738
Au      3.97286551      7.31057421      7.26375352
Au      1.38230046      8.23798905      7.36367274
Au      1.98141903      5.41594503      7.72044726
Au     -4.62652778      8.15610419      5.37930205
Au     -1.05712694      9.95933416      2.63527305
Au      3.37226349     10.08514138      6.90540845
Au     -2.63439879     10.05055693      4.92224512
Au     -1.35302577      9.09337765      7.34570443
Au      0.10922980      9.10006935      4.94426152
Au      1.25905769      3.71396218      5.66663583
Au     -0.13969886      8.22783775      9.83847457
Au      0.10731737      4.58066444      3.33009815
Au      0.69942798      6.37349153      5.29658243
Au     -0.48292036     11.75960755      4.62720408
Au     -1.41475367      4.41375948      5.65029502
Au     -3.94192838      9.94611207      7.37320397
Au      0.40524772      5.50752823     10.00757730
Au     -3.13817052      8.16316865      2.93519926
Au     -5.00654418      6.35203513      3.46715053
Au      0.76005213     11.05302439      6.99206566
Au     -4.02644154      5.38159566      5.73705799
Au      4.35345697      9.11547577      9.17428410
Au     -0.51239638      7.23893227      2.80355443
Au     -2.19462696      6.38904024     10.03738278
Au     -0.76090421     10.88548094      9.31213015
