          40
Au Au     -137.356839        0.000000     -137.356839   0.12500
Au      5.30020766      2.95492509     10.72370621
Au      5.36186377      7.53135377      9.97621962
Au      2.81454797      6.62739077      9.85248004
Au      2.36530017      3.98832658     16.83995169
Au      6.16808881      7.37533808     12.63308571
Au      6.28576419      5.05356904     14.12736489
Au      1.99426561      6.51980712     16.03590226
Au      3.53863886      4.89738754     14.38705595
Au      7.63973604      3.38794374     12.49411845
Au      4.69827892      7.49341836     15.03541783
Au      3.12151029      7.44668937     12.76591987
Au      2.69246384      2.98143003     12.37506277
Au      4.73192702     10.07953260     16.17291937
Au      0.94302615      4.40543097     14.48574964
Au      3.42701814      9.26759945     10.80006573
Au      8.60408886      8.79861707     12.80790052
Au      6.29221940      7.89129043     17.10690522
Au      1.59733611      9.82630102     12.77477197
Au      1.45745367      5.35456474     11.95324646
Au      4.96765817      3.23344525     16.17491929
Au      4.40974442      5.23224912     11.72792074
Au      4.49965020      5.70968174     17.16041596
Au      0.86439647      7.92315874     11.13393951
Au      2.74287259      3.88076699      9.88807227
Au      5.14812606      2.59270514     13.44893748
Au      9.00595734      4.61995037     14.75563072
Au      0.63431554      7.27432351     13.79566899
Au      4.29161518      9.91119376     13.36839262
Au      4.89620053      5.02646006      8.91074170
Au      3.56544854      8.18874222     17.57567698
Au      7.98653904      7.79777555     10.45840307
Au      6.27818242      9.74690915     11.46995353
Au      2.73676474      2.23965480     14.91394914
Au      2.35815995      9.07389678     15.22057870
Au      7.11024185      5.07329197     16.69507728
Au      6.71415230      9.51730546     14.51360720
Au      7.34471673      2.63065501     15.12102274
Au      7.91698739      7.14249388     15.01413959
Au      8.67308698      6.06477192     12.53564744
Au      6.95777519      5.24009200     10.61209567
