          40
Au Au     -137.298692        0.000000     -137.298692   0.07006
Au      2.21504990      5.93775956      6.46006990
Au      0.88758659     -2.11339068      5.73770767
Au      1.18324171      3.35198516      6.43131592
Au      1.08938069     -0.34685559      3.67246795
Au     -4.33425077     -0.99343233      6.55218609
Au     -3.88549582      3.17257092      8.24465957
Au     -4.11308396      3.35510871      5.43274105
Au     -5.44686061      1.41471975      6.81022808
Au      0.32275644      2.20832621      3.13347245
Au      3.04903052     -0.58379465      5.54371144
Au      0.10786117      5.44671121      8.12175700
Au      3.82328579      3.90743049      5.96005095
Au      0.48790290     -1.23077616     10.37705817
Au     -2.17146930      4.86902698      9.62529338
Au      3.26365950      1.56606415      7.16811716
Au     -2.80676903     -1.97166727      8.61215508
Au     -2.13821630     -0.52908943     10.86200953
Au      0.44421652      0.68867099      6.09682695
Au      1.83628167     -0.81275990      7.99963316
Au      0.21106397      3.79121101     10.33474666
Au     -0.25742584      5.77737116      5.33160048
Au     -1.55750675      0.47337072      4.06164736
Au      1.81386589      4.48611352      4.04378284
Au     -1.25809336      3.18438066      5.18514641
Au     -2.66676185      1.19167269      6.56123400
Au     -3.92266228      0.45905865      8.94022162
Au      2.64585645      1.86889171      4.48976828
Au     -1.05166167      2.91390029      8.04611540
Au      1.32827784      1.69659766      9.01250450
Au     -2.35259255      2.22224911     10.37355832
Au      2.54964881      4.14708778      8.56115580
Au     -2.75442152      2.77139889      3.03532222
Au     -0.22623142     -2.59441177      8.17518023
Au     -0.64837415      4.66150611      2.82140612
Au     -0.95734580      0.12268580      8.53136101
Au     -2.78813510      5.33848024      4.19281562
Au     -1.66363383     -1.37960152      6.14862915
Au     -2.44251105      5.12771739      6.91090515
Au     -4.25721142      0.82241654      4.39703614
Au     -0.07386910      1.20245095     11.27582834
