          40
Au Au     -137.314505        0.000000     -137.314505   0.03896
Au      2.91955509      0.60287596      8.45964186
Au      8.23126717      5.17579164      6.47289683
Au      5.29307192      4.93182067      6.10236832
Au      9.76201414      2.92028190      7.09188400
Au      5.65177513      0.91268106      8.58734112
Au      5.16367794      7.00160277      3.45596419
Au      4.84503702      8.25860594      7.78213397
Au      5.31882970      3.75817657      8.76011286
Au      2.49194327      3.35789029      8.77167088
Au      7.84122098      3.39122209      2.11779969
Au      4.11420084      2.36004715      6.60055513
Au      7.27445679     -0.99908263      7.55163923
Au      6.46433770      7.36537950      5.80141676
Au      6.97810049      2.68777910      6.71778748
Au      4.59005076     -1.30602108      7.44148899
Au      8.38523290      1.22758161      8.68232847
Au      3.00843694      0.00791067      5.70451913
Au      2.48830099      2.38356888      4.35497528
Au      3.53807808      4.91431932      3.81430320
Au      6.55826290      6.25544180      8.37312628
Au      3.63115730      7.04146495      5.68669824
Au      7.37430810      0.98058735      3.45515883
Au      4.06984489      2.05007777     10.56255256
Au      5.49159847      4.70696093      1.86134680
Au      6.44451838      5.06202077     10.91523589
Au      6.77233424      2.35848630     10.67236835
Au      8.73165836      3.09775480      4.60966824
Au      8.15339461      4.00507651      9.00252558
Au      1.32878466      1.95544626      6.74795414
Au      4.37697522      0.63742862      3.33335210
Au      4.86877460      7.16175790     10.27770713
Au      3.48671110      2.89302558      1.94037121
Au      5.83986533      0.31970078      5.64685264
Au      3.58460871      5.91593682      8.25222712
Au      2.35594793      4.50387033      6.23372658
Au      8.65378285      0.65366822      5.93504483
Au      3.75865866      4.75571055     10.80557857
Au      5.83686885      1.85790167      1.38982447
Au      7.18434373      5.33126555      3.96295500
Au      5.60115186      2.96905996      4.05657989
