          55
     -195.2848505484      211.4717197464     1  0.44733840E+09
Au        3.7518553633        -2.5061827854         1.6741200063   
Au        5.5381485498         2.0165851938         1.0113436864   
Au        4.0408757569         2.0584430421         3.4430964548   
Au        3.3944549695         0.3332902686         1.3866899707   
Au       -0.4250013047         2.5850723180        -0.9545844711   
Au        2.0204748637        -5.6624502485        -2.4405688838   
Au       -3.3304917193        -0.8445233297        -2.6384040753   
Au        4.3925409915        -0.7483284397         3.7114770220   
Au       -0.0501570627        -4.0061131368         4.2596036287   
Au        1.4310466862        -0.2833755317        -3.1935522095   
Au       -3.8345059818        -1.8749045124         2.0823768958   
Au        0.4325221984         4.1468775399         1.1444391474   
Au       -0.3600674776        -1.2634259660         4.1670900368   
Au        -1.4864103981        -0.2011757239         1.7320631575  
Au         1.7291590751        -3.0416352151        -2.9435175030  
Au        0.6093616923        -5.8063284257        -0.1381287450   
Au        0.3534458664        -3.1044141960        -0.4711972841   
Au        1.8634878510         4.0929902113        -1.1978309685   
Au         5.1404271333        -2.4627822922        -0.7862396863  
Au         1.1561314410        -1.3708443073         1.7065665569  
Au       -0.8461543144        -1.9672107664        -2.8874611153   
Au       -4.4303094496        -3.5372495273        -0.0379830518   
Au        5.8980973278        -0.7885004616         1.2820529391   
Au       -4.7463823126        -0.8116513927        -0.2872270820   
Au        -0.0319180890        -0.2572601711        -0.7560116323  
Au        -1.1292967800        -2.9977605691         1.9686184738  
Au        1.4963669978         3.1100409381         3.4467620261   
Au       -2.6551271972         0.9390257713        -0.6508788290   
Au       -3.9867700726         0.8607440380         1.7576537199   
Au        0.7653709762         1.4579395502         1.4272626616   
Au        4.0182191980        -1.3738590103        -3.1202325448   
Au        -1.1417289128         0.8144181871        -3.0104066449  
Au         2.1862451617        -2.4050531277         4.0122166722  
Au       -2.2546814018        -1.9289979450        -0.3781613201   
Au       -2.5631959573        -2.9073241187         4.2952562480   
Au        1.8610942204         0.3938608907         3.8558298030   
Au       -3.3342704157        -4.5821223550         2.2513410657   
Au        2.6138854653        -1.4270074408        -0.7692044450   
Au         1.1009463813         2.4299957736        -3.2389815006  
Au         3.6368966356         1.3552520272        -3.3134782741  
Au       -0.5172642131        -4.7263434952        -2.4956640067   
Au        4.2044524792        -4.0545411275        -2.7552994716   
Au        2.2344112858         1.3864381316        -0.9791108590   
Au       -2.8967549452        -0.1915563840         4.0554883173   
Au         2.9584629868        -4.2202973366        -0.3794248747  
Au        -1.9814213580        -4.8060774214        -0.1407050399  
Au        3.0309179206         3.2213560839         1.1347337209   
Au        4.9049802771         0.3027526348        -1.0911418604   
Au       -3.0264577911        -3.5750908308        -2.3952745541   
Au        -0.7177637397         1.5007769579         3.8000652552  
Au        -1.8061855799         2.5544071276         1.4908112031  
Au       -0.8228172900        -5.6863968690         2.2184719725   
Au        1.4828140636        -4.1957145287         1.9901977859   
Au        4.3874464007         3.0211830653        -1.2776513088   
Au        6.4159160784         0.9016081165         3.2511405356   
