64
Au Au     -301.166130        0.000000     -301.166130-301.16613   0.00000
Au   -4.726801  -10.603570   -8.922709
Au    7.425892   -3.004017    3.409998
Au   10.454130    1.427290    4.148402
Au    1.334467   -6.378086   -0.881971
Au   -0.644413   -5.391145   -5.704664
Au   14.947565   -2.494635    7.812200
Au   14.186946   -3.853121    5.642712
Au    0.380190   -2.053772   -1.188902
Au    3.538836   -0.782471    2.235463
Au    0.082719   -3.321006   -3.800153
Au   13.081767   -2.539976    3.542167
Au    2.998708   -2.214226   -0.086436
Au   -0.609862  -12.136867   -8.693422
Au   13.169230   -0.471067    8.107261
Au    6.340837    1.162253    6.490365
Au   -1.915477  -12.161314   -4.814563
Au    6.824811   -1.200792    5.364810
Au   -2.096308   -9.704720   -9.072934
Au   -0.072394   -7.999286   -5.139864
Au    8.967178    0.349528    6.145219
Au    5.155948   -2.983380    1.500814
Au   -2.310198   -9.449074   -4.327663
Au    6.305220   -0.690219    2.523777
Au   -2.341826   -4.612611   -3.809344
Au   -4.037066  -13.740971   -5.284091
Au   -3.557198   -9.156372   -6.861424
Au    3.380098   -4.861136    0.320637
Au   -2.736164  -11.849468  -10.437748
Au    9.190972   -2.583484    5.650767
Au    4.771935    0.377083    4.466038
Au   -0.719325   -4.696697   -1.571309
Au    4.733718   -2.390124    4.088019
Au   11.615072    1.204694    6.620308
Au   -4.191694  -14.873435   -7.629236
Au    0.945307   -5.922484   -3.561993
Au   -4.405043  -11.089656   -5.240586
Au   11.527001   -4.071569    5.180639
Au   -2.243912  -14.207788   -9.307225
Au    0.215769  -10.575715   -4.217974
Au   13.092873    0.866777    4.245235
Au   14.234121   -1.166749    5.640053
Au   -4.830529  -13.220772   -9.599526
Au   12.372993   -2.932989    7.405225
Au   -1.500627   -7.047915   -2.912213
Au   -1.953083   -2.426511   -2.358724
Au   11.544569   -0.542939    2.548335
Au    0.823651   -4.070405    0.607946
Au   10.345522   -2.955811    3.118712
Au   -1.658921  -14.272251   -6.662108
Au    0.723141   -8.457546   -2.568097
Au    0.980466   -1.488213    1.448470
Au   -5.675954  -12.562952   -7.144312
Au   14.283268    1.352999    6.554280
Au   -1.401429   -7.570675   -7.462885
Au   -2.821641   -6.939343   -5.289279
Au   10.492965   -1.081130    7.797485
Au    2.657521   -3.346329    2.505698
Au   -0.954315  -10.211065   -6.671107
Au    7.354887    1.364317    4.108566
Au    0.335632  -12.535397   -6.209612
Au    2.085418   -4.008654   -1.964639
Au    8.949915   -0.725581    3.502132
Au   -3.023729  -12.084136   -7.489004
Au   11.427001   -1.158321    5.229430
