          92
Au Au     -322.373301        0.000000     -322.373301-322.37330   0.00000
Au     -1.76327446      6.13942049      0.18700613
Au     -3.40517203     -2.51384875     -3.85940399
Au      1.33717195     -3.32109429      5.99824663
Au      3.08951314      3.83460035      4.91975118
Au      3.70874854     -3.58885873     -2.28215269
Au     -2.18687119     -0.39955089      7.10746528
Au      0.76819673     -2.27476301     -5.92316708
Au      2.60706414      0.16960699      0.42374303
Au      3.06445606     -4.61274247      0.28504460
Au     -2.94914682      1.50267737      5.23486658
Au      1.95078147      2.62800792     -3.97115193
Au     -0.02904024      3.89894204     -1.10866192
Au      2.82577310      5.31324056      2.65980068
Au     -0.79748385      1.83650500     -4.69737016
Au     -2.17765037      2.55664641     -2.26294730
Au      4.76711714      0.87370133     -1.19402655
Au      1.06213216      0.06886712      2.63373066
Au      0.40856165      6.50899346     -1.38056593
Au     -2.57726016      3.86921497     -4.68642177
Au      3.53874598      1.29510824      3.97656301
Au      4.87223836      3.51842430      2.84768960
Au      0.91241581      3.97289675      6.49265195
Au     -5.28172991     -0.18860278      0.48062843
Au     -3.25292744     -1.19818307      4.70166087
Au     -1.44313852     -5.83013913      2.12997943
Au     -1.84138324      5.53809476      2.84281990
Au      0.23570249     -2.52634614      3.57112010
Au     -1.12387096     -3.74696614     -4.69298710
Au      1.57959889     -4.12641058     -4.02494775
Au     -0.65039059     -0.09819621      4.79289324
Au      2.32516477      4.95063138     -2.61862406
Au     -3.63648951      3.43542921      3.25041492
Au     -4.86581922      2.55259107      0.90682590
Au     -4.22476047      4.24749330     -1.16121458
Au     -2.64118904      0.80031061      0.20976896
Au      2.36165994      2.42083294     -1.19671998
Au      0.19923079      4.01374134      1.83829047
Au      1.11952048     -3.47448329     -1.26599451
Au      2.21881522     -0.94778204      4.96408357
Au      0.42686250     -5.88791720     -0.02692459
Au     -4.15807437      5.29418581      1.35038198
Au     -4.03226706      0.67841898      2.77611707
Au      0.21384578     -1.73673799     -3.26408848
Au     -0.23898994     -1.06729709     -0.36753043
Au      0.26826307      0.97249492     -2.32913190
Au     -1.53713811     -0.82646508     -5.09523493
Au      0.56469671      6.63272684      1.52395548
Au      0.63894368      5.40366736      4.19299540
Au     -2.09568777      5.39788184     -2.39567839
Au      3.14686364     -1.92619761     -4.50806248
Au     -0.89271267     -3.49343079      0.93346898
Au     -1.43466289      3.77072171      4.94832938
Au      0.87117784      2.43924941      4.15858901
Au     -2.95562079     -5.23630901     -3.33797574
Au      2.31039579     -5.89935164     -2.00183735
Au     -3.65160314     -4.37279984      1.18577883
Au      5.18440222     -1.37714094     -2.65856473
Au     -0.32041951     -5.61508667     -2.70215218
Au      2.87618731     -3.36068038      3.74610860
Au     -2.38034761     -3.54817996      3.45570801
Au      3.81990845     -1.10153895      2.60884806
Au      1.77441274     -2.39789911      1.24813367
Au     -4.32977685     -3.90077162     -1.48727371
Au     -4.85509539      3.29513635     -3.57147972
Au      4.23873139     -1.99750001     -0.09785365
Au      2.29040254      5.01194235      0.06172915
Au     -3.43684541      1.11948661     -4.29016081
Au      4.98642281      1.14112719      1.55259507
Au      1.36526003      0.14455063     -4.91016967
Au      4.62382412      3.41853856      0.05744530
Au     -1.27833812     -2.69451584      5.94842232
Au     -0.36503596     -4.98848853      4.61238045
Au     -4.63492842      1.42121996     -1.67463667
Au     -2.23302716     -5.68603756     -0.66057830
Au     -4.46200580     -2.02572317      2.38831621
Au     -0.61496707      1.78670533      6.79427508
Au      2.51819755     -0.90737430     -2.04729175
Au     -2.23990861     -0.40462342     -2.35911781
Au      2.06439395      1.43808175      6.37585301
Au      4.43626212      3.18038168     -2.71647164
Au     -1.73016199     -0.99485173      2.24680377
Au     -1.46726394      1.78606207      2.79736107
Au      1.18269134     -4.94763647      2.37901863
Au     -3.12363693     -1.90762135     -0.00509746
Au     -0.06654226      4.42818830     -3.83117014
Au      3.89608669      0.71914557     -3.82310334
Au      0.08109540      1.56072056      0.43818718
Au      2.54910405      2.62049742      1.75265468
Au     -1.62956559     -3.27297927     -1.87780975
Au     -2.25284039      3.48190738      0.64271791
Au     -4.90388987     -1.25909669     -2.02514649
Au      0.52162062     -0.84728405      7.12255807
